<?xml version="1.0" encoding="UTF-8"?>

<!-- generated on Sat Nov  1 13:39:09 2014 by SUMO netconvert Version 0.18.0
<?xml version="1.0" encoding="UTF-8"?>

<configuration xmlns:xsi="http://www.w3.org/2001/XMLSchema-instance" xsi:noNamespaceSchemaLocation="http://sumo.sf.net/xsd/netconvertConfiguration.xsd">

    <input>
        <osm-files value="Kad100.osm"/>
    </input>

    <output>
        <output-file value="Kad100.net.xml"/>
    </output>

    <projection>
        <proj.utm value="true"/>
    </projection>

    <tls_building>
        <tls.discard-simple value="true"/>
        <tls.join value="true"/>
    </tls_building>

    <ramp_guessing>
        <ramps.guess value="true"/>
    </ramp_guessing>

    <edge_removal>
        <remove-edges.by-vclass value="hov,taxi,bus,delivery,transport,lightrail,cityrail,rail_slow,rail_fast,motorcycle,bicycle,pedestrian"/>
        <remove-edges.by-type value="highway.track,highway.service"/>
        <remove-edges.isolated value="true"/>
    </edge_removal>

    <processing>
        <no-internal-links value="true"/>
        <geometry.remove value="true"/>
        <roundabouts.guess value="true"/>
        <junctions.join value="true"/>
        <junctions.join-dist value="7.5"/>
        <tls.join-dist value="25"/>
    </processing>

    <report>
        <verbose value="true"/>
    </report>

</configuration>
-->

<net version="0.13" xmlns:xsi="http://www.w3.org/2001/XMLSchema-instance" xsi:noNamespaceSchemaLocation="http://sumo.sf.net/xsd/net_file.xsd">

    <location netOffset="-438402.98,-3691810.71" convBoundary="0.00,0.00,1521.78,1461.32" origBoundary="44.337837,33.363786,44.354155,33.376980" projParameter="+proj=utm +zone=38 +ellps=WGS84 +datum=WGS84 +units=m +no_defs"/>

    <edge id="-4290682" from="25903028" to="25903037" priority="5" type="highway.unclassified" shape="705.89,25.88 703.04,49.74 706.57,135.15">
        <lane id="-4290682_0" index="0" speed="22.22" length="109.52" shape="710.80,26.47 707.96,50.32 711.35,130.87"/>
        <lane id="-4290682_1" index="1" speed="22.22" length="109.52" shape="707.53,26.08 704.68,49.93 708.05,131.00"/>
    </edge>
    <edge id="-4290688#0" from="25903056" to="25903055" priority="5" type="highway.unclassified">
        <lane id="-4290688#0_0" index="0" speed="22.22" length="156.14" shape="464.52,160.79 357.81,70.91"/>
        <lane id="-4290688#0_1" index="1" speed="22.22" length="156.14" shape="466.64,158.26 359.93,68.39"/>
    </edge>
    <edge id="-4290689#0" from="25903068" to="2330005031" priority="5" type="highway.unclassified" shape="246.87,206.61 222.92,239.82 199.38,272.48 518.28,501.61">
        <lane id="-4290689#0_0" index="0" speed="22.22" length="473.90" shape="246.32,215.83 226.94,242.72 206.29,271.35 514.67,492.92"/>
        <lane id="-4290689#0_1" index="1" speed="22.22" length="473.90" shape="243.65,213.90 224.26,240.79 201.68,272.10 512.74,495.60"/>
    </edge>
    <edge id="-4290689#1" from="25903067" to="25903068" priority="5" type="highway.unclassified" shape="297.34,136.75 286.44,150.72 267.64,176.67 246.87,206.61">
        <lane id="-4290689#1_0" index="0" speed="22.22" length="86.20" shape="296.43,145.96 290.34,153.76 271.65,179.58 255.60,202.71"/>
        <lane id="-4290689#1_1" index="1" speed="22.22" length="86.20" shape="293.83,143.93 287.74,151.73 268.98,177.64 252.89,200.82"/>
    </edge>
    <edge id="-4290689#2" from="25903055" to="25903067" priority="5" type="highway.unclassified" shape="354.75,61.87 314.14,111.80 297.34,136.75">
        <lane id="-4290689#2_0" index="0" speed="22.22" length="94.44" shape="353.44,71.32 317.98,114.93 305.82,133.01"/>
        <lane id="-4290689#2_1" index="1" speed="22.22" length="94.44" shape="350.88,69.24 315.42,112.85 303.08,131.17"/>
    </edge>
    <edge id="-4290690#0" from="25903035" to="25903055" priority="5" type="highway.unclassified" shape="518.72,102.56 398.28,0.00 354.75,61.87">
        <lane id="-4290690#0_0" index="0" speed="22.22" length="233.83" shape="509.70,101.38 399.21,7.29 363.12,58.58"/>
        <lane id="-4290690#0_1" index="1" speed="22.22" length="233.83" shape="511.84,98.87 398.59,2.43 360.42,56.68"/>
    </edge>
    <edge id="-4290690#1" from="25903036" to="25903035" priority="5" type="highway.unclassified">
        <lane id="-4290690#1_0" index="0" speed="22.22" length="134.09" shape="610.88,188.92 521.94,111.91"/>
        <lane id="-4290690#1_1" index="1" speed="22.22" length="134.09" shape="613.04,186.43 524.10,109.41"/>
    </edge>
    <edge id="-4290691" from="25903035" to="25903056" priority="5" type="highway.unclassified">
        <lane id="-4290691_0" index="0" speed="22.22" length="74.63" shape="517.58,112.38 483.20,158.62"/>
        <lane id="-4290691_1" index="1" speed="22.22" length="74.63" shape="514.93,110.41 480.55,156.65"/>
    </edge>
    <edge id="-4290698" from="2330005031" to="25903068" priority="5" type="highway.unclassified" shape="518.28,501.61 199.38,272.48 222.92,239.82 246.87,206.61">
        <lane id="-4290698_0" index="0" speed="22.22" length="473.90" shape="508.89,500.96 192.46,273.60 218.91,236.93 238.29,210.04"/>
        <lane id="-4290698_1" index="1" speed="22.22" length="473.90" shape="510.82,498.28 197.07,272.85 221.58,238.86 240.97,211.97"/>
    </edge>
    <edge id="-4290699#0" from="25903071" to="25903068" priority="5" type="highway.unclassified">
        <lane id="-4290699#0_0" index="0" speed="22.22" length="193.78" shape="398.98,313.66 250.95,215.26"/>
        <lane id="-4290699#0_1" index="1" speed="22.22" length="193.78" shape="400.81,310.91 252.77,212.51"/>
    </edge>
    <edge id="-4290699#1" from="2330005030" to="25903071" priority="5" type="highway.unclassified">
        <lane id="-4290699#1_0" index="0" speed="22.22" length="199.53" shape="561.75,428.29 411.99,322.58"/>
        <lane id="-4290699#1_1" index="1" speed="22.22" length="199.53" shape="563.65,425.59 413.90,319.88"/>
    </edge>
    <edge id="-4290700#0" from="25903072" to="25903067" priority="5" type="highway.unclassified">
        <lane id="-4290700#0_0" index="0" speed="22.22" length="193.12" shape="444.38,249.32 300.78,145.35"/>
        <lane id="-4290700#0_1" index="1" speed="22.22" length="193.12" shape="446.31,246.65 302.71,142.67"/>
    </edge>
    <edge id="-4290700#1" from="2330005029" to="25903072" priority="5" type="highway.unclassified">
        <lane id="-4290700#1_0" index="0" speed="22.22" length="201.64" shape="611.70,361.41 457.54,258.48"/>
        <lane id="-4290700#1_1" index="1" speed="22.22" length="201.64" shape="613.53,358.67 459.37,255.74"/>
    </edge>
    <edge id="-4290701" from="25903072" to="25903071" priority="5" type="highway.unclassified">
        <lane id="-4290701_0" index="0" speed="22.22" length="78.43" shape="453.15,259.39 416.97,310.17"/>
        <lane id="-4290701_1" index="1" speed="22.22" length="78.43" shape="450.46,257.48 414.28,308.25"/>
    </edge>
    <edge id="-4290702" from="25903036" to="25903056" priority="5" type="highway.unclassified" shape="620.08,190.35 576.49,243.28 474.18,162.45">
        <lane id="-4290702_0" index="0" speed="22.22" length="198.96" shape="617.61,201.14 577.23,250.17 477.28,171.21"/>
        <lane id="-4290702_1" index="1" speed="22.22" length="198.96" shape="615.06,199.04 576.74,245.57 479.32,168.62"/>
    </edge>
    <edge id="-4290709#0" from="25903113" to="25903096" priority="5" type="highway.unclassified">
        <lane id="-4290709#0_0" index="0" speed="22.22" length="78.83" shape="796.05,358.27 761.24,297.85"/>
        <lane id="-4290709#0_1" index="1" speed="22.22" length="78.83" shape="798.91,356.62 764.10,296.20"/>
    </edge>
    <edge id="-4290709#1" from="25903114" to="25903113" priority="5" type="highway.unclassified">
        <lane id="-4290709#1_0" index="0" speed="22.22" length="143.63" shape="861.86,485.75 805.14,375.45"/>
        <lane id="-4290709#1_1" index="1" speed="22.22" length="143.63" shape="864.79,484.24 808.08,373.94"/>
    </edge>
    <edge id="-4290709#10" from="25903267" to="25903234" priority="5" type="highway.unclassified">
        <lane id="-4290709#10_0" index="0" speed="22.22" length="126.38" shape="1380.43,1215.04 1313.78,1129.14"/>
        <lane id="-4290709#10_1" index="1" speed="22.22" length="126.38" shape="1383.04,1213.02 1316.39,1127.12"/>
    </edge>
    <edge id="-4290709#11" from="25903268" to="25903267" priority="5" type="highway.unclassified">
        <lane id="-4290709#11_0" index="0" speed="22.22" length="203.63" shape="1517.99,1380.00 1391.03,1228.34"/>
        <lane id="-4290709#11_1" index="1" speed="22.22" length="203.63" shape="1520.52,1377.88 1393.56,1226.22"/>
    </edge>
    <edge id="-4290709#2" from="25903153" to="25903114" priority="5" type="highway.unclassified">
        <lane id="-4290709#2_0" index="0" speed="22.22" length="86.04" shape="895.49,564.59 869.96,504.04"/>
        <lane id="-4290709#2_1" index="1" speed="22.22" length="86.04" shape="898.53,563.31 873.00,502.76"/>
    </edge>
    <edge id="-4290709#3" from="25903152" to="25903153" priority="5" type="highway.unclassified">
        <lane id="-4290709#3_0" index="0" speed="22.22" length="91.94" shape="942.86,642.62 904.19,580.17"/>
        <lane id="-4290709#3_1" index="1" speed="22.22" length="91.94" shape="945.66,640.88 907.00,578.43"/>
    </edge>
    <edge id="-4290709#4" from="25903151" to="25903152" priority="5" type="highway.unclassified">
        <lane id="-4290709#4_0" index="0" speed="22.22" length="75.32" shape="972.97,711.42 950.58,658.56"/>
        <lane id="-4290709#4_1" index="1" speed="22.22" length="75.32" shape="976.01,710.13 953.62,657.28"/>
    </edge>
    <edge id="-4290709#5" from="25903227" to="25903151" priority="5" type="highway.unclassified" shape="1116.61,901.52 1071.34,845.18 1036.17,806.66 1014.01,776.00 979.70,714.62">
        <lane id="-4290709#5_0" index="0" speed="22.22" length="232.58" shape="1108.32,899.10 1067.48,848.28 1032.52,810.00 1010.00,778.90 980.68,726.50"/>
        <lane id="-4290709#5_1" index="1" speed="22.22" length="232.58" shape="1110.89,897.03 1070.06,846.21 1034.95,807.77 1012.68,776.96 983.56,724.89"/>
    </edge>
    <edge id="-4290709#6" from="25903231" to="25903227" priority="5" type="highway.unclassified">
        <lane id="-4290709#6_0" index="0" speed="22.22" length="132.04" shape="1192.88,997.12 1118.70,911.49"/>
        <lane id="-4290709#6_1" index="1" speed="22.22" length="132.04" shape="1195.37,994.96 1121.20,909.33"/>
    </edge>
    <edge id="-4290709#7" from="25903232" to="25903231" priority="5" type="highway.unclassified">
        <lane id="-4290709#7_0" index="0" speed="22.22" length="64.09" shape="1236.24,1043.34 1203.89,1009.36"/>
        <lane id="-4290709#7_1" index="1" speed="22.22" length="64.09" shape="1238.63,1041.06 1206.28,1007.09"/>
    </edge>
    <edge id="-4290709#8" from="25903233" to="25903232" priority="5" type="highway.unclassified">
        <lane id="-4290709#8_0" index="0" speed="22.22" length="57.03" shape="1275.79,1083.49 1247.99,1055.49"/>
        <lane id="-4290709#8_1" index="1" speed="22.22" length="57.03" shape="1278.13,1081.17 1250.34,1053.17"/>
    </edge>
    <edge id="-4290709#9" from="25903234" to="25903233" priority="5" type="highway.unclassified">
        <lane id="-4290709#9_0" index="0" speed="22.22" length="41.81" shape="1303.53,1116.19 1287.51,1096.20"/>
        <lane id="-4290709#9_1" index="1" speed="22.22" length="41.81" shape="1306.10,1114.13 1290.08,1094.14"/>
    </edge>
    <edge id="-4290710#0" from="25903185" to="25903184" priority="5" type="highway.unclassified">
        <lane id="-4290710#0_0" index="0" speed="22.22" length="68.28" shape="237.55,725.22 193.70,698.44"/>
        <lane id="-4290710#0_1" index="1" speed="22.22" length="68.28" shape="239.27,722.41 195.42,695.63"/>
    </edge>
    <edge id="-4290710#1" from="2330005033" to="25903185" priority="5" type="highway.unclassified">
        <lane id="-4290710#1_0" index="0" speed="22.22" length="98.35" shape="319.97,778.90 251.61,734.12"/>
        <lane id="-4290710#1_1" index="1" speed="22.22" length="98.35" shape="321.78,776.14 253.42,731.36"/>
    </edge>
    <edge id="-4290711#0" from="25903184" to="26307325" priority="5" type="highway.unclassified">
        <lane id="-4290711#0_0" index="0" speed="22.22" length="176.83" shape="188.73,698.92 97.05,830.89"/>
        <lane id="-4290711#0_1" index="1" speed="22.22" length="176.83" shape="186.02,697.04 94.34,829.00"/>
    </edge>
    <edge id="-4290711#1" from="25903188" to="25903184" priority="5" type="highway.unclassified">
        <lane id="-4290711#1_0" index="0" speed="22.22" length="175.59" shape="289.32,555.60 197.97,685.70"/>
        <lane id="-4290711#1_1" index="1" speed="22.22" length="175.59" shape="286.62,553.71 195.27,683.80"/>
    </edge>
    <edge id="-4290712#0" from="26307322" to="27481501" priority="5" type="highway.unclassified">
        <lane id="-4290712#0_0" index="0" speed="22.22" length="104.62" shape="144.66,882.21 102.95,935.21"/>
        <lane id="-4290712#0_1" index="1" speed="22.22" length="104.62" shape="142.07,880.17 100.36,933.17"/>
    </edge>
    <edge id="-4290712#1" from="25903185" to="26307322" priority="5" type="highway.unclassified">
        <lane id="-4290712#1_0" index="0" speed="22.22" length="176.59" shape="246.62,735.12 163.66,855.80"/>
        <lane id="-4290712#1_1" index="1" speed="22.22" length="176.59" shape="243.90,733.25 160.94,853.93"/>
    </edge>
    <edge id="-4290712#2" from="cluster_25903189_25903190" to="25903185" priority="5" type="highway.unclassified" shape="347.60,587.96 247.31,725.38">
        <lane id="-4290712#2_0" index="0" speed="22.22" length="178.59" shape="346.93,597.28 256.25,721.52"/>
        <lane id="-4290712#2_1" index="1" speed="22.22" length="178.59" shape="344.27,595.33 253.59,719.58"/>
    </edge>
    <edge id="-4290713#0" from="25903186" to="26307441" priority="5" type="highway.unclassified">
        <lane id="-4290713#0_0" index="0" speed="22.22" length="22.76" shape="164.35,461.34 151.80,453.27"/>
        <lane id="-4290713#0_1" index="1" speed="22.22" length="22.76" shape="166.14,458.56 153.58,450.50"/>
    </edge>
    <edge id="-4290713#1" from="25903187" to="25903186" priority="5" type="highway.unclassified">
        <lane id="-4290713#1_0" index="0" speed="22.22" length="70.15" shape="220.96,502.09 177.07,470.05"/>
        <lane id="-4290713#1_1" index="1" speed="22.22" length="70.15" shape="222.91,499.43 179.01,467.38"/>
    </edge>
    <edge id="-4290713#2" from="25903188" to="25903187" priority="5" type="highway.unclassified">
        <lane id="-4290713#2_0" index="0" speed="22.22" length="73.74" shape="280.61,545.43 233.97,511.57"/>
        <lane id="-4290713#2_1" index="1" speed="22.22" length="73.74" shape="282.55,542.76 235.91,508.90"/>
    </edge>
    <edge id="-4290713#3" from="cluster_25903189_25903190" to="25903188" priority="5" type="highway.unclassified" shape="333.56,577.62 289.95,546.10">
        <lane id="-4290713#3_0" index="0" speed="22.22" length="62.79" shape="338.25,587.11 293.64,554.88"/>
        <lane id="-4290713#3_1" index="1" speed="22.22" length="62.79" shape="340.18,584.44 295.58,552.20"/>
    </edge>
    <edge id="-4290714" from="25903101" to="cluster_25903189_25903190" priority="5" type="highway.unclassified" shape="375.14,522.72 333.56,577.62">
        <lane id="-4290714_0" index="0" speed="22.22" length="77.84" shape="374.49,531.78 342.28,574.30"/>
        <lane id="-4290714_1" index="1" speed="22.22" length="77.84" shape="371.85,529.78 339.65,572.31"/>
    </edge>
    <edge id="-4290715#0" from="25903101" to="25903100" priority="5" type="highway.unclassified">
        <lane id="-4290715#0_0" index="0" speed="22.22" length="209.02" shape="366.40,521.23 230.16,391.45"/>
        <lane id="-4290715#0_1" index="1" speed="22.22" length="209.02" shape="368.68,518.84 232.44,389.06"/>
    </edge>
    <edge id="-4290715#1" from="cluster_2330005032_25903181" to="25903101" priority="5" type="highway.unclassified" shape="458.74,590.23 430.19,558.75 375.14,522.72">
        <lane id="-4290715#1_0" index="0" speed="22.22" length="117.51" shape="448.45,586.25 426.95,562.54 378.80,531.03"/>
        <lane id="-4290715#1_1" index="1" speed="22.22" length="117.51" shape="450.89,584.03 429.11,560.01 380.61,528.27"/>
    </edge>
    <edge id="-4290715#10" from="25903245" to="25903249" priority="5" type="highway.unclassified">
        <lane id="-4290715#10_0" index="0" speed="22.22" length="77.61" shape="968.03,1170.39 932.11,1122.05"/>
        <lane id="-4290715#10_1" index="1" speed="22.22" length="77.61" shape="970.68,1168.42 934.76,1120.08"/>
    </edge>
    <edge id="-4290715#11" from="25903244" to="25903245" priority="5" type="highway.unclassified">
        <lane id="-4290715#11_0" index="0" speed="22.22" length="24.72" shape="985.14,1191.19 978.02,1182.88"/>
        <lane id="-4290715#11_1" index="1" speed="22.22" length="24.72" shape="987.64,1189.05 980.53,1180.73"/>
    </edge>
    <edge id="-4290715#12" from="25903243" to="25903244" priority="5" type="highway.unclassified">
        <lane id="-4290715#12_0" index="0" speed="22.22" length="58.75" shape="1022.11,1236.15 995.97,1204.22"/>
        <lane id="-4290715#12_1" index="1" speed="22.22" length="58.75" shape="1024.66,1234.06 998.52,1202.13"/>
    </edge>
    <edge id="-4290715#13" from="25903242" to="25903243" priority="5" type="highway.unclassified">
        <lane id="-4290715#13_0" index="0" speed="22.22" length="100.30" shape="1083.68,1308.06 1033.17,1249.26"/>
        <lane id="-4290715#13_1" index="1" speed="22.22" length="100.30" shape="1086.18,1305.91 1035.67,1247.11"/>
    </edge>
    <edge id="-4290715#3" from="25903143" to="cluster_2330005032_25903181" priority="5" type="highway.unclassified" shape="550.35,687.51 471.77,603.24">
        <lane id="-4290715#3_0" index="0" speed="22.22" length="124.43" shape="539.24,682.86 474.59,613.53"/>
        <lane id="-4290715#3_1" index="1" speed="22.22" length="124.43" shape="541.66,680.61 477.01,611.28"/>
    </edge>
    <edge id="-4290715#4" from="25903144" to="25903143" priority="5" type="highway.unclassified">
        <lane id="-4290715#4_0" index="0" speed="22.22" length="104.23" shape="610.94,757.51 554.17,698.61"/>
        <lane id="-4290715#4_1" index="1" speed="22.22" length="104.23" shape="613.31,755.22 556.55,696.32"/>
    </edge>
    <edge id="-4290715#5" from="25903145" to="25903144" priority="5" type="highway.unclassified">
        <lane id="-4290715#5_0" index="0" speed="22.22" length="100.77" shape="685.80,827.12 627.87,774.03"/>
        <lane id="-4290715#5_1" index="1" speed="22.22" length="100.77" shape="688.03,824.68 630.09,771.60"/>
    </edge>
    <edge id="-4290715#6" from="25903146" to="25903145" priority="5" type="highway.unclassified">
        <lane id="-4290715#6_0" index="0" speed="22.22" length="70.51" shape="736.07,881.37 700.73,842.20"/>
        <lane id="-4290715#6_1" index="1" speed="22.22" length="70.51" shape="738.52,879.16 703.18,839.99"/>
    </edge>
    <edge id="-4290715#7" from="25903147" to="25903146" priority="5" type="highway.unclassified">
        <lane id="-4290715#7_0" index="0" speed="22.22" length="72.57" shape="787.89,930.25 747.52,892.82"/>
        <lane id="-4290715#7_1" index="1" speed="22.22" length="72.57" shape="790.14,927.83 749.76,890.40"/>
    </edge>
    <edge id="-4290715#8" from="25903222" to="25903147" priority="5" type="highway.unclassified" shape="906.16,1084.63 825.54,960.96 797.42,932.33">
        <lane id="-4290715#8_0" index="0" speed="22.22" length="187.76" shape="897.12,1079.82 821.67,964.08 800.19,942.21"/>
        <lane id="-4290715#8_1" index="1" speed="22.22" length="187.76" shape="899.88,1078.02 824.25,962.00 802.54,939.90"/>
    </edge>
    <edge id="-4290715#9" from="25903249" to="25903222" priority="5" type="highway.unclassified">
        <lane id="-4290715#9_0" index="0" speed="22.22" length="35.96" shape="922.44,1110.00 908.01,1094.06"/>
        <lane id="-4290715#9_1" index="1" speed="22.22" length="35.96" shape="924.88,1107.79 910.46,1091.84"/>
    </edge>
    <edge id="-4290717#0" from="25903180" to="26307256" priority="5" type="highway.unclassified">
        <lane id="-4290717#0_0" index="0" speed="22.22" length="59.49" shape="347.14,1051.39 327.04,1087.19"/>
        <lane id="-4290717#0_1" index="1" speed="22.22" length="59.49" shape="344.26,1049.78 324.16,1085.58"/>
    </edge>
    <edge id="-4290717#1" from="25903177" to="25903180" priority="5" type="highway.unclassified">
        <lane id="-4290717#1_0" index="0" speed="22.22" length="80.08" shape="387.74,982.87 355.09,1037.68"/>
        <lane id="-4290717#1_1" index="1" speed="22.22" length="80.08" shape="384.90,981.18 352.25,1036.00"/>
    </edge>
    <edge id="-4290717#10" from="25903124" to="25903116" priority="5" type="highway.unclassified">
        <lane id="-4290717#10_0" index="0" speed="22.22" length="90.04" shape="710.58,367.59 679.08,441.45"/>
        <lane id="-4290717#10_1" index="1" speed="22.22" length="90.04" shape="707.54,366.30 676.05,440.16"/>
    </edge>
    <edge id="-4290717#2" from="25903169" to="25903177" priority="5" type="highway.unclassified">
        <lane id="-4290717#2_0" index="0" speed="22.22" length="73.40" shape="426.79,921.33 396.01,969.48"/>
        <lane id="-4290717#2_1" index="1" speed="22.22" length="73.40" shape="424.01,919.55 393.23,967.70"/>
    </edge>
    <edge id="-4290717#3" from="25903170" to="25903169" priority="5" type="highway.unclassified">
        <lane id="-4290717#3_0" index="0" speed="22.22" length="76.98" shape="467.69,857.45 435.86,907.15"/>
        <lane id="-4290717#3_1" index="1" speed="22.22" length="76.98" shape="464.49,856.32 433.08,905.38"/>
    </edge>
    <edge id="-4290717#4" from="25903161" to="25903170" priority="5" type="highway.unclassified">
        <lane id="-4290717#4_0" index="0" speed="22.22" length="71.60" shape="501.47,793.25 477.02,841.19"/>
        <lane id="-4290717#4_1" index="1" speed="22.22" length="71.60" shape="498.53,791.75 474.08,839.69"/>
    </edge>
    <edge id="-4290717#5" from="25903143" to="25903161" priority="5" type="highway.unclassified">
        <lane id="-4290717#5_0" index="0" speed="22.22" length="107.64" shape="549.87,699.25 509.65,777.30"/>
        <lane id="-4290717#5_1" index="1" speed="22.22" length="107.64" shape="546.94,697.73 506.72,775.79"/>
    </edge>
    <edge id="-4290717#6" from="25903121" to="25903143" priority="5" type="highway.unclassified">
        <lane id="-4290717#6_0" index="0" speed="22.22" length="106.73" shape="598.11,602.07 559.65,679.87"/>
        <lane id="-4290717#6_1" index="1" speed="22.22" length="106.73" shape="595.16,600.61 556.69,678.40"/>
    </edge>
    <edge id="-4290717#7" from="cluster_25903118_25903119" to="25903121" priority="5" type="highway.unclassified" shape="626.27,539.01 597.65,591.84">
        <lane id="-4290717#7_0" index="0" speed="22.22" length="69.90" shape="626.81,548.40 606.34,586.19"/>
        <lane id="-4290717#7_1" index="1" speed="22.22" length="69.90" shape="623.91,546.82 603.44,584.61"/>
    </edge>
    <edge id="-4290717#9" from="25903116" to="cluster_25903118_25903119" priority="5" type="highway.unclassified" shape="670.71,448.48 636.14,522.06">
        <lane id="-4290717#9_0" index="0" speed="22.22" length="91.10" shape="671.35,458.76 644.61,515.68"/>
        <lane id="-4290717#9_1" index="1" speed="22.22" length="91.10" shape="668.36,457.35 641.62,514.28"/>
    </edge>
    <edge id="-4290718" from="25903180" to="25903179" priority="5" type="highway.unclassified">
        <lane id="-4290718_0" index="0" speed="22.22" length="167.99" shape="336.68,1041.70 224.01,964.00"/>
        <lane id="-4290718_1" index="1" speed="22.22" length="167.99" shape="338.55,1038.99 225.88,961.28"/>
    </edge>
    <edge id="-4290719" from="25903177" to="25903176" priority="5" type="highway.unclassified">
        <lane id="-4290719_0" index="0" speed="22.22" length="147.32" shape="377.96,973.35 268.42,901.66"/>
        <lane id="-4290719_1" index="1" speed="22.22" length="147.32" shape="379.77,970.59 270.23,898.90"/>
    </edge>
    <edge id="-4290720#0" from="25903169" to="25903168" priority="5" type="highway.unclassified">
        <lane id="-4290720#0_0" index="0" speed="22.22" length="143.92" shape="417.10,910.35 317.20,832.18"/>
        <lane id="-4290720#0_1" index="1" speed="22.22" length="143.92" shape="419.13,907.75 319.23,829.58"/>
    </edge>
    <edge id="-4290720#1" from="26307318" to="25903169" priority="5" type="highway.unclassified">
        <lane id="-4290720#1_0" index="0" speed="22.22" length="19.77" shape="432.42,921.29 431.08,920.41"/>
        <lane id="-4290720#1_1" index="1" speed="22.22" length="19.77" shape="434.23,918.53 432.89,917.65"/>
    </edge>
    <edge id="-4290721#0" from="25903170" to="25903165" priority="5" type="highway.unclassified">
        <lane id="-4290721#0_0" index="0" speed="22.22" length="139.36" shape="458.28,845.88 358.00,775.90"/>
        <lane id="-4290721#0_1" index="1" speed="22.22" length="139.36" shape="460.17,843.17 359.89,773.19"/>
    </edge>
    <edge id="-4290721#1" from="25903171" to="25903170" priority="5" type="highway.unclassified">
        <lane id="-4290721#1_0" index="0" speed="22.22" length="125.80" shape="560.39,916.96 474.12,856.92"/>
        <lane id="-4290721#1_1" index="1" speed="22.22" length="125.80" shape="562.27,914.25 476.01,854.21"/>
    </edge>
    <edge id="-4290721#2" from="25903172" to="25903171" priority="5" type="highway.unclassified">
        <lane id="-4290721#2_0" index="0" speed="22.22" length="74.63" shape="623.37,959.12 577.21,928.42"/>
        <lane id="-4290721#2_1" index="1" speed="22.22" length="74.63" shape="625.20,956.37 579.03,925.67"/>
    </edge>
    <edge id="-4290722#0" from="25903161" to="25903163" priority="5" type="highway.unclassified">
        <lane id="-4290722#0_0" index="0" speed="22.22" length="129.53" shape="490.71,781.73 400.43,715.22"/>
        <lane id="-4290722#0_1" index="1" speed="22.22" length="129.53" shape="492.67,779.08 402.39,712.57"/>
    </edge>
    <edge id="-4290722#1" from="25903162" to="25903161" priority="5" type="highway.unclassified">
        <lane id="-4290722#1_0" index="0" speed="22.22" length="112.23" shape="584.21,842.95 505.71,792.11"/>
        <lane id="-4290722#1_1" index="1" speed="22.22" length="112.23" shape="586.01,840.18 507.50,789.34"/>
    </edge>
    <edge id="-4290723#0" from="25903121" to="25903079" priority="5" type="highway.unclassified">
        <lane id="-4290723#0_0" index="0" speed="22.22" length="96.29" shape="587.39,590.31 524.38,542.79"/>
        <lane id="-4290723#0_1" index="1" speed="22.22" length="96.29" shape="589.38,587.67 526.36,540.15"/>
    </edge>
    <edge id="-4290723#1" from="25903155" to="25903121" priority="5" type="highway.unclassified">
        <lane id="-4290723#1_0" index="0" speed="22.22" length="86.80" shape="659.41,639.07 602.35,600.94"/>
        <lane id="-4290723#1_1" index="1" speed="22.22" length="86.80" shape="661.24,636.33 604.18,598.19"/>
    </edge>
    <edge id="-4290723#2" from="cluster_25903154_25903156" to="25903155" priority="5" type="highway.unclassified" shape="755.05,702.12 669.82,640.07">
        <lane id="-4290723#2_0" index="0" speed="22.22" length="112.50" shape="746.55,702.06 675.02,649.98"/>
        <lane id="-4290723#2_1" index="1" speed="22.22" length="112.50" shape="748.34,699.28 676.96,647.31"/>
    </edge>
    <edge id="-4290724" from="cluster_25903118_25903119" to="25903076" priority="5" type="highway.unclassified" shape="636.14,522.06 561.94,468.88">
        <lane id="-4290724_0" index="0" speed="22.22" length="101.10" shape="625.64,520.62 565.91,477.82"/>
        <lane id="-4290724_1" index="1" speed="22.22" length="101.10" shape="627.56,517.94 567.83,475.14"/>
    </edge>
    <edge id="-4290725" from="25903120" to="cluster_25903118_25903119" priority="5" type="highway.unclassified" shape="698.37,577.30 626.27,539.01">
        <lane id="-4290725_0" index="0" speed="22.22" length="91.45" shape="688.54,577.69 632.31,547.82"/>
        <lane id="-4290725_1" index="1" speed="22.22" length="91.45" shape="690.09,574.77 633.86,544.91"/>
    </edge>
    <edge id="-4290726#0" from="25903116" to="25903074" priority="5" type="highway.unclassified">
        <lane id="-4290726#0_0" index="0" speed="22.22" length="78.30" shape="659.92,446.72 611.24,411.14"/>
        <lane id="-4290726#0_1" index="1" speed="22.22" length="78.30" shape="661.87,444.06 613.18,408.48"/>
    </edge>
    <edge id="-4290726#1" from="25903117" to="25903116" priority="5" type="highway.unclassified">
        <lane id="-4290726#1_0" index="0" speed="22.22" length="78.90" shape="726.84,491.06 675.56,457.56"/>
        <lane id="-4290726#1_1" index="1" speed="22.22" length="78.90" shape="728.65,488.29 677.37,454.80"/>
    </edge>
    <edge id="-4290728#0" from="25903171" to="25903204" priority="5" type="highway.unclassified">
        <lane id="-4290728#0_0" index="0" speed="22.22" length="238.36" shape="573.05,929.78 497.98,1136.32"/>
        <lane id="-4290728#0_1" index="1" speed="22.22" length="238.36" shape="569.95,928.65 494.88,1135.19"/>
    </edge>
    <edge id="-4290728#1" from="25903162" to="25903171" priority="5" type="highway.unclassified">
        <lane id="-4290728#1_0" index="0" speed="22.22" length="78.26" shape="598.02,851.87 579.61,910.40"/>
        <lane id="-4290728#1_1" index="1" speed="22.22" length="78.26" shape="594.87,850.87 576.46,909.41"/>
    </edge>
    <edge id="-4290728#2" from="25903144" to="25903162" priority="5" type="highway.unclassified">
        <lane id="-4290728#2_0" index="0" speed="22.22" length="86.12" shape="623.68,775.11 603.10,836.35"/>
        <lane id="-4290728#2_1" index="1" speed="22.22" length="86.12" shape="620.56,774.06 599.97,835.30"/>
    </edge>